
Version,
  8.1;                                    !- Version Identifier

Building,
  Medium Office,                          !- Name
  2.12722397327889,                       !- North Axis {deg}
  ,                                       !- Terrain
  0.04,                                   !- Loads Convergence Tolerance Value
  0.4,                                    !- Temperature Convergence Tolerance Value {deltaC}
  FullExterior,                           !- Solar Distribution
  25,                                     !- Maximum Number of Warmup Days
  ;                                       !- Minimum Number of Warmup Days

Zone,
  Thermal Zone 1,                         !- Name
  -0,                                     !- Direction of Relative North {deg}
  0,                                      !- X Origin {m}
  0,                                      !- Y Origin {m}
  0,                                      !- Z Origin {m}
  ,                                       !- Type
  ,                                       !- Multiplier
  ,                                       !- Ceiling Height {m}
  ,                                       !- Volume {m3}
  ,                                       !- Floor Area {m2}
  ,                                       !- Zone Inside Convection Algorithm
  ;                                       !- Zone Outside Convection Algorithm

BuildingSurface:Detailed,
  Surface 1,                              !- Name
  Floor,                                  !- Surface Type
  000 ExtSlabCarpet 4in ClimateZone 1-8,  !- Construction Name
  Thermal Zone 1,                         !- Zone Name
  Ground,                                 !- Outside Boundary Condition
  ,                                       !- Outside Boundary Condition Object
  NoSun,                                  !- Sun Exposure
  NoWind,                                 !- Wind Exposure
  ,                                       !- View Factor to Ground
  ,                                       !- Number of Vertices
  15.7432375, 14.201775, 0,               !- X,Y,Z Vertex 1 {m}
  15.7432375, 0, 0,                       !- X,Y,Z Vertex 2 {m}
  0, 0, 0,                                !- X,Y,Z Vertex 3 {m}
  0, 14.201775, 0;                        !- X,Y,Z Vertex 4 {m}

BuildingSurface:Detailed,
  Surface 2,                              !- Name
  Roof,                                   !- Surface Type
  ASHRAE 189.1-2009 ExtRoof IEAD ClimateZone 2-5 adj roof insulation, !- Construction Name
  Thermal Zone 1,                         !- Zone Name
  Outdoors,                               !- Outside Boundary Condition
  ,                                       !- Outside Boundary Condition Object
  SunExposed,                             !- Sun Exposure
  WindExposed,                            !- Wind Exposure
  ,                                       !- View Factor to Ground
  ,                                       !- Number of Vertices
  15.7432375, 0, 2.7352625,               !- X,Y,Z Vertex 1 {m}
  15.7432375, 14.201775, 2.7352625,       !- X,Y,Z Vertex 2 {m}
  0, 14.201775, 2.7352625,                !- X,Y,Z Vertex 3 {m}
  0, 0, 2.7352625;                        !- X,Y,Z Vertex 4 {m}

BuildingSurface:Detailed,
  Surface 3,                              !- Name
  Wall,                                   !- Surface Type
  ASHRAE 189.1-2009 ExtWall SteelFrame ClimateZone 4-8 adj ext wall insulation, !- Construction Name
  Thermal Zone 1,                         !- Zone Name
  Outdoors,                               !- Outside Boundary Condition
  ,                                       !- Outside Boundary Condition Object
  SunExposed,                             !- Sun Exposure
  WindExposed,                            !- Wind Exposure
  ,                                       !- View Factor to Ground
  ,                                       !- Number of Vertices
  15.7432375, 14.201775, 2.7352625,       !- X,Y,Z Vertex 1 {m}
  15.7432375, 14.201775, 0,               !- X,Y,Z Vertex 2 {m}
  0, 14.201775, 0,                        !- X,Y,Z Vertex 3 {m}
  0, 14.201775, 2.7352625;                !- X,Y,Z Vertex 4 {m}

BuildingSurface:Detailed,
  Surface 4,                              !- Name
  Wall,                                   !- Surface Type
  ASHRAE 189.1-2009 ExtWall SteelFrame ClimateZone 4-8 adj ext wall insulation, !- Construction Name
  Thermal Zone 1,                         !- Zone Name
  Outdoors,                               !- Outside Boundary Condition
  ,                                       !- Outside Boundary Condition Object
  SunExposed,                             !- Sun Exposure
  WindExposed,                            !- Wind Exposure
  ,                                       !- View Factor to Ground
  ,                                       !- Number of Vertices
  15.7432375, 0, 2.7352625,               !- X,Y,Z Vertex 1 {m}
  15.7432375, 0, 0,                       !- X,Y,Z Vertex 2 {m}
  15.7432375, 14.201775, 0,               !- X,Y,Z Vertex 3 {m}
  15.7432375, 14.201775, 2.7352625;       !- X,Y,Z Vertex 4 {m}

BuildingSurface:Detailed,
  Surface 5,                              !- Name
  Wall,                                   !- Surface Type
  ASHRAE 189.1-2009 ExtWall SteelFrame ClimateZone 4-8 adj ext wall insulation, !- Construction Name
  Thermal Zone 1,                         !- Zone Name
  Outdoors,                               !- Outside Boundary Condition
  ,                                       !- Outside Boundary Condition Object
  SunExposed,                             !- Sun Exposure
  WindExposed,                            !- Wind Exposure
  ,                                       !- View Factor to Ground
  ,                                       !- Number of Vertices
  0, 0, 2.7352625,                        !- X,Y,Z Vertex 1 {m}
  0, 0, 0,                                !- X,Y,Z Vertex 2 {m}
  15.7432375, 0, 0,                       !- X,Y,Z Vertex 3 {m}
  15.7432375, 0, 2.7352625;               !- X,Y,Z Vertex 4 {m}

FenestrationSurface:Detailed,
  Sub Surface 1,                          !- Name
  Window,                                 !- Surface Type
  ASHRAE 189.1-2009 ExtWindow ClimateZone 4-5, !- Construction Name
  Surface 5,                              !- Building Surface Name
  ,                                       !- Outside Boundary Condition Object
  ,                                       !- View Factor to Ground
  ,                                       !- Shading Control Name
  ,                                       !- Frame and Divider Name
  ,                                       !- Multiplier
  ,                                       !- Number of Vertices
  2.51380336894676, 0, 2.21487247219105,  !- X,Y,Z Vertex 1 {m}
  2.51380336894676, 0, 0.84644747219105,  !- X,Y,Z Vertex 2 {m}
  13.6993283689468, 0, 0.84644747219105,  !- X,Y,Z Vertex 3 {m}
  13.6993283689468, 0, 2.21487247219105;  !- X,Y,Z Vertex 4 {m}

BuildingSurface:Detailed,
  Surface 6,                              !- Name
  Wall,                                   !- Surface Type
  ASHRAE 189.1-2009 ExtWall SteelFrame ClimateZone 4-8 adj ext wall insulation, !- Construction Name
  Thermal Zone 1,                         !- Zone Name
  Outdoors,                               !- Outside Boundary Condition
  ,                                       !- Outside Boundary Condition Object
  SunExposed,                             !- Sun Exposure
  WindExposed,                            !- Wind Exposure
  ,                                       !- View Factor to Ground
  ,                                       !- Number of Vertices
  0, 14.201775, 2.7352625,                !- X,Y,Z Vertex 1 {m}
  0, 14.201775, 0,                        !- X,Y,Z Vertex 2 {m}
  0, 0, 0,                                !- X,Y,Z Vertex 3 {m}
  0, 0, 2.7352625;                        !- X,Y,Z Vertex 4 {m}

FenestrationSurface:Detailed,
  Sub Surface 2,                          !- Name
  Window,                                 !- Surface Type
  ASHRAE 189.1-2009 ExtWindow ClimateZone 4-5, !- Construction Name
  Surface 6,                              !- Building Surface Name
  ,                                       !- Outside Boundary Condition Object
  ,                                       !- View Factor to Ground
  ,                                       !- Shading Control Name
  ,                                       !- Frame and Divider Name
  ,                                       !- Multiplier
  ,                                       !- Number of Vertices
  0, 14.176375, 2.47703299847739,         !- X,Y,Z Vertex 1 {m}
  0, 14.176375, 0.762,                    !- X,Y,Z Vertex 2 {m}
  0, 0.0254000000000012, 0.762,           !- X,Y,Z Vertex 3 {m}
  0, 0.0254000000000012, 2.47703299847739; !- X,Y,Z Vertex 4 {m}

ZoneControl:Thermostat,
  Thermal Zone 1 Thermostat,              !- Name
  Thermal Zone 1,                         !- Zone or ZoneList Name
  Thermal Zone 1 Thermostat Schedule,     !- Control Type Schedule Name
  ThermostatSetpoint:DualSetpoint,        !- Control Object Type 1
  Medium Office Thermostat;               !- Control Name 1

Schedule:Compact,
  Thermal Zone 1 Thermostat Schedule,     !- Name
  Thermal Zone 1 Thermostat Schedule Type Limits, !- Schedule Type Limits Name
  Through: 12/31,                         !- Field 1
  For: AllDays,                           !- Field 2
  Until: 24:00,                           !- Field 3
  4;                                      !- Field 4

ScheduleTypeLimits,
  Thermal Zone 1 Thermostat Schedule Type Limits, !- Name
  0,                                      !- Lower Limit Value {BasedOnField A3}
  4,                                      !- Upper Limit Value {BasedOnField A3}
  DISCRETE;                               !- Numeric Type

ThermostatSetpoint:DualSetpoint,
  Medium Office Thermostat,               !- Name
  Medium Office HtgSetp,                  !- Heating Setpoint Temperature Schedule Name
  Medium Office ClgSetp;                  !- Cooling Setpoint Temperature Schedule Name

ScheduleTypeLimits,
  Temperature 1,                          !- Name
  ,                                       !- Lower Limit Value {BasedOnField A3}
  ,                                       !- Upper Limit Value {BasedOnField A3}
  Continuous,                             !- Numeric Type
  temperature;                            !- Unit Type

Schedule:Day:Interval,
  Medium Office HtgSetp Default Schedule, !- Name
  Temperature 1,                          !- Schedule Type Limits Name
  No,                                     !- Interpolate to Timestep
  06:00,                                  !- Time 1 {hh:mm}
  15.6,                                   !- Value Until Time 1
  22:00,                                  !- Time 2 {hh:mm}
  21,                                     !- Value Until Time 2
  24:00,                                  !- Time 3 {hh:mm}
  15.6;                                   !- Value Until Time 3

Schedule:Day:Interval,
  Medium Office HtgSetp Rule 2 Day Schedule, !- Name
  Temperature 1,                          !- Schedule Type Limits Name
  No,                                     !- Interpolate to Timestep
  06:00,                                  !- Time 1 {hh:mm}
  15.6,                                   !- Value Until Time 1
  18:00,                                  !- Time 2 {hh:mm}
  21,                                     !- Value Until Time 2
  24:00,                                  !- Time 3 {hh:mm}
  15.6;                                   !- Value Until Time 3

Schedule:Day:Interval,
  Medium Office HtgSetp Rule 1 Day Schedule, !- Name
  Temperature 1,                          !- Schedule Type Limits Name
  No,                                     !- Interpolate to Timestep
  24:00,                                  !- Time 1 {hh:mm}
  15.6;                                   !- Value Until Time 1

Schedule:Week:Daily,
  Schedule:Week:Daily {95e4359d-0c06-4417-af7c-a9232e399cad}, !- Name
  Medium Office HtgSetp Default Schedule, !- Sunday Schedule:Day Name
  Medium Office HtgSetp Default Schedule, !- Monday Schedule:Day Name
  Medium Office HtgSetp Default Schedule, !- Tuesday Schedule:Day Name
  Medium Office HtgSetp Default Schedule, !- Wednesday Schedule:Day Name
  Medium Office HtgSetp Default Schedule, !- Thursday Schedule:Day Name
  Medium Office HtgSetp Default Schedule, !- Friday Schedule:Day Name
  Medium Office HtgSetp Rule 2 Day Schedule, !- Saturday Schedule:Day Name
  Medium Office HtgSetp Default Schedule, !- Holiday Schedule:Day Name
  Medium Office HtgSetp Summer Design Day, !- SummerDesignDay Schedule:Day Name
  Medium Office HtgSetp Winter Design Day, !- WinterDesignDay Schedule:Day Name
  Medium Office HtgSetp Default Schedule, !- CustomDay1 Schedule:Day Name
  Medium Office HtgSetp Default Schedule; !- CustomDay2 Schedule:Day Name

Schedule:Week:Daily,
  Schedule:Week:Daily {2a07c9e1-5563-45d5-8480-d5b93cd336a4}, !- Name
  Medium Office HtgSetp Rule 1 Day Schedule, !- Sunday Schedule:Day Name
  Medium Office HtgSetp Default Schedule, !- Monday Schedule:Day Name
  Medium Office HtgSetp Default Schedule, !- Tuesday Schedule:Day Name
  Medium Office HtgSetp Default Schedule, !- Wednesday Schedule:Day Name
  Medium Office HtgSetp Default Schedule, !- Thursday Schedule:Day Name
  Medium Office HtgSetp Default Schedule, !- Friday Schedule:Day Name
  Medium Office HtgSetp Rule 2 Day Schedule, !- Saturday Schedule:Day Name
  Medium Office HtgSetp Default Schedule, !- Holiday Schedule:Day Name
  Medium Office HtgSetp Summer Design Day, !- SummerDesignDay Schedule:Day Name
  Medium Office HtgSetp Winter Design Day, !- WinterDesignDay Schedule:Day Name
  Medium Office HtgSetp Default Schedule, !- CustomDay1 Schedule:Day Name
  Medium Office HtgSetp Default Schedule; !- CustomDay2 Schedule:Day Name

Schedule:Year,
  Medium Office HtgSetp,                  !- Name
  Temperature 1,                          !- Schedule Type Limits Name
  Schedule:Week:Daily {95e4359d-0c06-4417-af7c-a9232e399cad}, !- Schedule:Week Name 1
  1,                                      !- Start Month 1
  1,                                      !- Start Day 1
  1,                                      !- End Month 1
  3,                                      !- End Day 1
  Schedule:Week:Daily {2a07c9e1-5563-45d5-8480-d5b93cd336a4}, !- Schedule:Week Name 2
  1,                                      !- Start Month 2
  4,                                      !- Start Day 2
  12,                                     !- End Month 2
  31;                                     !- End Day 2

Schedule:Day:Interval,
  Medium Office HtgSetp Summer Design Day, !- Name
  Temperature 1,                          !- Schedule Type Limits Name
  No,                                     !- Interpolate to Timestep
  24:00,                                  !- Time 1 {hh:mm}
  15.6;                                   !- Value Until Time 1

Schedule:Day:Interval,
  Medium Office HtgSetp Winter Design Day, !- Name
  Temperature 1,                          !- Schedule Type Limits Name
  No,                                     !- Interpolate to Timestep
  24:00,                                  !- Time 1 {hh:mm}
  21;                                     !- Value Until Time 1

ScheduleTypeLimits,
  Temperature 2,                          !- Name
  ,                                       !- Lower Limit Value {BasedOnField A3}
  ,                                       !- Upper Limit Value {BasedOnField A3}
  Continuous,                             !- Numeric Type
  temperature;                            !- Unit Type

Schedule:Day:Interval,
  Medium Office ClgSetp Default Schedule, !- Name
  Temperature 2,                          !- Schedule Type Limits Name
  No,                                     !- Interpolate to Timestep
  06:00,                                  !- Time 1 {hh:mm}
  26.7,                                   !- Value Until Time 1
  22:00,                                  !- Time 2 {hh:mm}
  24,                                     !- Value Until Time 2
  24:00,                                  !- Time 3 {hh:mm}
  26.7;                                   !- Value Until Time 3

Schedule:Day:Interval,
  Medium Office ClgSetp Rule 2 Day Schedule, !- Name
  Temperature 2,                          !- Schedule Type Limits Name
  No,                                     !- Interpolate to Timestep
  06:00,                                  !- Time 1 {hh:mm}
  26.7,                                   !- Value Until Time 1
  18:00,                                  !- Time 2 {hh:mm}
  24,                                     !- Value Until Time 2
  24:00,                                  !- Time 3 {hh:mm}
  26.7;                                   !- Value Until Time 3

Schedule:Day:Interval,
  Medium Office ClgSetp Rule 1 Day Schedule, !- Name
  Temperature 2,                          !- Schedule Type Limits Name
  No,                                     !- Interpolate to Timestep
  24:00,                                  !- Time 1 {hh:mm}
  26.7;                                   !- Value Until Time 1

Schedule:Week:Daily,
  Schedule:Week:Daily {6473be35-8073-499e-8fba-70d968daa1e3}, !- Name
  Medium Office ClgSetp Default Schedule, !- Sunday Schedule:Day Name
  Medium Office ClgSetp Default Schedule, !- Monday Schedule:Day Name
  Medium Office ClgSetp Default Schedule, !- Tuesday Schedule:Day Name
  Medium Office ClgSetp Default Schedule, !- Wednesday Schedule:Day Name
  Medium Office ClgSetp Default Schedule, !- Thursday Schedule:Day Name
  Medium Office ClgSetp Default Schedule, !- Friday Schedule:Day Name
  Medium Office ClgSetp Rule 2 Day Schedule, !- Saturday Schedule:Day Name
  Medium Office ClgSetp Default Schedule, !- Holiday Schedule:Day Name
  Medium Office ClgSetp Summer Design Day, !- SummerDesignDay Schedule:Day Name
  Medium Office ClgSetp Winter Design Day, !- WinterDesignDay Schedule:Day Name
  Medium Office ClgSetp Default Schedule, !- CustomDay1 Schedule:Day Name
  Medium Office ClgSetp Default Schedule; !- CustomDay2 Schedule:Day Name

Schedule:Week:Daily,
  Schedule:Week:Daily {0b1094bc-1cf7-4f7e-8ade-94454660700e}, !- Name
  Medium Office ClgSetp Rule 1 Day Schedule, !- Sunday Schedule:Day Name
  Medium Office ClgSetp Default Schedule, !- Monday Schedule:Day Name
  Medium Office ClgSetp Default Schedule, !- Tuesday Schedule:Day Name
  Medium Office ClgSetp Default Schedule, !- Wednesday Schedule:Day Name
  Medium Office ClgSetp Default Schedule, !- Thursday Schedule:Day Name
  Medium Office ClgSetp Default Schedule, !- Friday Schedule:Day Name
  Medium Office ClgSetp Rule 2 Day Schedule, !- Saturday Schedule:Day Name
  Medium Office ClgSetp Default Schedule, !- Holiday Schedule:Day Name
  Medium Office ClgSetp Summer Design Day, !- SummerDesignDay Schedule:Day Name
  Medium Office ClgSetp Winter Design Day, !- WinterDesignDay Schedule:Day Name
  Medium Office ClgSetp Default Schedule, !- CustomDay1 Schedule:Day Name
  Medium Office ClgSetp Default Schedule; !- CustomDay2 Schedule:Day Name

Schedule:Year,
  Medium Office ClgSetp,                  !- Name
  Temperature 2,                          !- Schedule Type Limits Name
  Schedule:Week:Daily {6473be35-8073-499e-8fba-70d968daa1e3}, !- Schedule:Week Name 1
  1,                                      !- Start Month 1
  1,                                      !- Start Day 1
  1,                                      !- End Month 1
  3,                                      !- End Day 1
  Schedule:Week:Daily {0b1094bc-1cf7-4f7e-8ade-94454660700e}, !- Schedule:Week Name 2
  1,                                      !- Start Month 2
  4,                                      !- Start Day 2
  12,                                     !- End Month 2
  31;                                     !- End Day 2

Schedule:Day:Interval,
  Medium Office ClgSetp Summer Design Day, !- Name
  Temperature 2,                          !- Schedule Type Limits Name
  No,                                     !- Interpolate to Timestep
  06:00,                                  !- Time 1 {hh:mm}
  26.7,                                   !- Value Until Time 1
  22:00,                                  !- Time 2 {hh:mm}
  24,                                     !- Value Until Time 2
  24:00,                                  !- Time 3 {hh:mm}
  26.7;                                   !- Value Until Time 3

Schedule:Day:Interval,
  Medium Office ClgSetp Winter Design Day, !- Name
  Temperature 2,                          !- Schedule Type Limits Name
  No,                                     !- Interpolate to Timestep
  24:00,                                  !- Time 1 {hh:mm}
  26.7;                                   !- Value Until Time 1
! 
! HVACTemplate:Zone:IdealLoadsAirSystem,
!   Thermal Zone 1,                         !- Zone Name
!   ,                                       !- Template Thermostat Name
!   ,                                       !- System Availability Schedule Name
!   ,                                       !- Maximum Heating Supply Air Temperature {C}
!   ,                                       !- Minimum Cooling Supply Air Temperature {C}
!   ,                                       !- Maximum Heating Supply Air Humidity Ratio {kgWater/kgDryAir}
!   ,                                       !- Minimum Cooling Supply Air Humidity Ratio {kgWater/kgDryAir}
!   ,                                       !- Heating Limit
!   ,                                       !- Maximum Heating Air Flow Rate {m3/s}
!   ,                                       !- Maximum Sensible Heating Capacity {W}
!   ,                                       !- Cooling Limit
!   ,                                       !- Maximum Cooling Air Flow Rate {m3/s}
!   ,                                       !- Maximum Total Cooling Capacity {W}
!   ,                                       !- Heating Availability Schedule Name
!   ,                                       !- Cooling Availability Schedule Name
!   ,                                       !- Dehumidification Control Type
!   ,                                       !- Cooling Sensible Heat Ratio {dimensionless}
!   ,                                       !- Dehumidification Setpoint {percent}
!   ,                                       !- Humidification Control Type
!   ,                                       !- Humidification Setpoint {percent}
!   ,                                       !- Outdoor Air Method
!   ,                                       !- Outdoor Air Flow Rate per Person {m3/s}
!   ,                                       !- Outdoor Air Flow Rate per Zone Floor Area {m3/s-m2}
!   ,                                       !- Outdoor Air Flow Rate per Zone {m3/s}
!   ,                                       !- Design Specification Outdoor Air Object Name
!   ;                                       !- Demand Controlled Ventilation Type

Sizing:Zone,
  Thermal Zone 1,                         !- Zone or ZoneList Name
  SupplyAirTemperature,                   !- Zone Cooling Design Supply Air Temperature Input Method
  14,                                     !- Zone Cooling Design Supply Air Temperature {C}
  ,                                       !- Zone Cooling Design Supply Air Temperature Difference {deltaC}
  SupplyAirTemperature,                   !- Zone Heating Design Supply Air Temperature Input Method
  40,                                     !- Zone Heating Design Supply Air Temperature {C}
  ,                                       !- Zone Heating Design Supply Air Temperature Difference {deltaC}
  0.0085,                                 !- Zone Cooling Design Supply Air Humidity Ratio {kgWater/kgDryAir}
  0.008,                                  !- Zone Heating Design Supply Air Humidity Ratio {kgWater/kgDryAir}
  MediumOffice Outdoor Air,               !- Design Specification Outdoor Air Object Name
  ,                                       !- Zone Heating Sizing Factor
  ,                                       !- Zone Cooling Sizing Factor
  DesignDay,                              !- Cooling Design Air Flow Method
  0,                                      !- Cooling Design Air Flow Rate {m3/s}
  0.000762,                               !- Cooling Minimum Air Flow per Zone Floor Area {m3/s-m2}
  0,                                      !- Cooling Minimum Air Flow {m3/s}
  0,                                      !- Cooling Minimum Air Flow Fraction
  DesignDay,                              !- Heating Design Air Flow Method
  0,                                      !- Heating Design Air Flow Rate {m3/s}
  0.002032,                               !- Heating Maximum Air Flow per Zone Floor Area {m3/s-m2}
  0.1415762,                              !- Heating Maximum Air Flow {m3/s}
  0.3,                                    !- Heating Maximum Air Flow Fraction
  Thermal Zone 1 Design Spec Zone Air Dist; !- Design Specification Zone Air Distribution Object Name

DesignSpecification:ZoneAirDistribution,
  Thermal Zone 1 Design Spec Zone Air Dist, !- Name
  1,                                      !- Zone Air Distribution Effectiveness in Cooling Mode {dimensionless}
  1;                                      !- Zone Air Distribution Effectiveness in Heating Mode {dimensionless}

DesignSpecification:OutdoorAir,
  MediumOffice Outdoor Air,               !- Name
  Sum,                                    !- Outdoor Air Method
  0.0107645200000431,                     !- Outdoor Air Flow per Person {m3/s-person}
  0,                                      !- Outdoor Air Flow per Zone Floor Area {m3/s-m2}
  0,                                      !- Outdoor Air Flow per Zone {m3/s}
  0;                                      !- Outdoor Air Flow Air Changes per Hour {1/hr}

ZoneVentilation:DesignFlowRate,
  Thermal Zone 1 Ventilation per Person,  !- Name
  Thermal Zone 1,                         !- Zone or ZoneList Name
  Medium Office Bldg Occ,                 !- Schedule Name
  Flow/Person,                            !- Design Flow Rate Calculation Method
  ,                                       !- Design Flow Rate {m3/s}
  ,                                       !- Flow Rate per Zone Floor Area {m3/s-m2}
  0.0107645200000431,                     !- Flow Rate per Person {m3/s-person}
  ,                                       !- Air Changes per Hour {1/hr}
  ,                                       !- Ventilation Type
  ,                                       !- Fan Pressure Rise {Pa}
  ,                                       !- Fan Total Efficiency
  ,                                       !- Constant Term Coefficient
  ,                                       !- Temperature Term Coefficient
  ,                                       !- Velocity Term Coefficient
  ;                                       !- Velocity Squared Term Coefficient

SimulationControl,
  Yes,                                    !- Do Zone Sizing Calculation
  No,                                     !- Do System Sizing Calculation
  No,                                     !- Do Plant Sizing Calculation
  No,                                     !- Run Simulation for Sizing Periods
  Yes;                                    !- Run Simulation for Weather File Run Periods

ConvergenceLimits,
  1;                                      !- Minimum System Timestep {minutes}

HeatBalanceAlgorithm,
  ConductionTransferFunction,             !- Algorithm
  200;                                    !- Surface Temperature Upper Limit {C}

RunPeriod,
  Run Period 1,                           !- Name
  1,                                      !- Begin Month
  1,                                      !- Begin Day of Month
  12,                                     !- End Month
  31,                                     !- End Day of Month
  Thursday,                               !- Day of Week for Start Day
  No,                                     !- Use Weather File Holidays and Special Days
  No,                                     !- Use Weather File Daylight Saving Period
  No,                                     !- Apply Weekend Holiday Rule
  Yes,                                    !- Use Weather File Rain Indicators
  Yes,                                    !- Use Weather File Snow Indicators
  1;                                      !- Number of Times Runperiod to be Repeated

ShadowCalculation,
  AverageOverDaysInFrequency,             !- Calculation Method
  7,                                      !- Calculation Frequency
  15000;                                  !- Maximum Figures in Shadow Overlap Calculations

SurfaceConvectionAlgorithm:Inside,
  TARP;                                   !- Algorithm

SurfaceConvectionAlgorithm:Outside,
  DOE-2;                                  !- Algorithm

Timestep,
  4;                                      !- Number of Timesteps per Hour

Sizing:Parameters,
  1.25,                                   !- Heating Sizing Factor
  1.15;                                   !- Cooling Sizing Factor

ZoneAirHeatBalanceAlgorithm,
  AnalyticalSolution;                     !- Algorithm

ProgramControl,
  1;                                      !- Number of Threads Allowed

GlobalGeometryRules,
  UpperLeftCorner,                        !- Starting Vertex Position
  Counterclockwise,                       !- Vertex Entry Direction
  Relative,                               !- Coordinate System
  Relative,                               !- Daylighting Reference Point Coordinate System
  Relative;                               !- Rectangular Surface Coordinate System

Material,
  000 F08 Metal surface,                  !- Name
  Smooth,                                 !- Roughness
  0.0008,                                 !- Thickness {m}