!-Generator IDFEditor 1.43
!-Option SortedOrder
!-NOTE: All comments with '!-' are ignored by the IDFEditor and are generated automatically.
!-      Use '!' comments if they need to be retained when using the IDFEditor.
!-   ===========  ALL OBJECTS IN CLASS: VERSION ===========
! *********************************************************************************************************************
! Record of Changes to IDF
!
! Greg Barker - 09/05/14 - AirBeam_June_V12_2.idf
!                        (1) Changed infiltration schedule to correctly match measured ACH

! Greg Barker - 09/05/14 - AirBeam_June_V12_3.idf
!                        (1) Added Schedule_ElectricalEquip to correctly match measured electrical internal gains
!                        (2) Changed Latent Fraction of Electrical Equipment from 0.1 to 0.0

! Greg Barker - 09/08/14 - AirBeam_June_V12_4.idf
!                        (1) Added output: Zone/Sys Sensible Cooling Rate
!                        (2) Changed output of DX Cooling Coil Electric Consumption (J) to DX Cooling Coil Electric Power (W)
!                        (3) Changed output of Heating Coil Electric Consumption (J) to Heating Coil Electric Power (W)
!                        (4) Changed output of Fan Electric Consumption (J) to Fan Electric Power (W)
!                        (5) Added output: DX Coil Total Cooling Rate
!                        (6) Added output: DX Coil Sensible Cooling Rate
!                        (7) Added output: DX Coil Latent Cooling Rate
! Lesley Herrmann - 09/09/14 - AirBeam_June_V12_5.idf
!                        (1) Changed HTC to constant values. Inside of inner liner = 8.0, air gap surfaces = 5.0, outside of outer liner = Adaptive
!                        (2) Added output: TZ1_PTACAIRINLETNODE:System Node Temp[C](TimeStep)
! Greg Barker - 09/11/14 - AirBeam_June_V12_6.idf
!                        (1) For Coil:Heating:Electric, TZ1_PTACHeater, changed Availability Schedule Name from "Always_Off" to "Always_On"
!                        (2) Changed HTG_Setpoint schedule to match Clg_Setpoint schedule in order to make indoor temps always match measured values
!                        (3) Changed efficiency of Coil:Heating:Electric from 0.99 to 1.00

! Greg Barker - 09/16/14 - AirBeam_June_V12_7.idf
!                        (1) Cleaned up Output statements (removed repetitions, rearranged orders, added some, removed some)

! Greg Barker - 09/16/14 - AirBeam_June_V12_8.idf
!                        (1) Replaced outputs of surface OZ_EastWall-1, outside face with Inside_EastWall-1, inside face after discovering that no properties BUT temperature for OZ_EastWall-1, outside face can be output
!                        (2) Replaced outputs of surface OZ_EastWall-2, outside face with Inside_EastWall-2, inside face after discovering that no properties BUT temperature for OZ_EastWall-2, outside face can be output
!                        (3) Replaced outputs of surface OZ_EastWall-3, outside face with Inside_EastWall-3, inside face after discovering that no properties BUT temperature for OZ_EastWall-3, outside face can be output
!                        (4) Replaced outputs of surface OZ_WestWall-1, outside face with Inside_WestWall-1, inside face after discovering that no properties BUT temperature for OZ_WestWall-1, outside face can be output
!                        (5) Replaced outputs of surface OZ_WestWall-2, outside face with Inside_WestWall-2, inside face after discovering that no properties BUT temperature for OZ_WestWall-2, outside face can be output
!                        (6) Replaced outputs of surface OZ_WestWall-3, outside face with Inside_WestWall-3, inside face after discovering that no properties BUT temperature for OZ_WestWall-3, outside face can be output

! Greg Barker - 09/19/14 - AirBeam_June_V12_9.idf
!                        (1) In output of surface properties, changed "Inside_EastWall-2" to "Surface 53"
!                        (2) In output of surface properties, changed "Inside_WestWall-2" to "Surface 27"
!                        (3) Removed outputs related to East & West surfaces #3
!                        (4) Removed outputs related to "Surface 1"
!                        (5) Removed outputs related to Windows
!                        (6) Added outputs related to North & South surfaces

! Eric Bonnema - 09/20/14 - AirBeam_June_V12_10.idf
!                        (1) Changed UUID "{fd0d7b15-a675-4b66-bc00-cb35c475334a}" to "Zn1" to work with EMS code
!                        (2) Changed UUID "{8cece2e7-af65-42a7-9709-4cbf10553c54}" to "Zn2" to work with EMS code

! Eric Bonnema - 09/21/14 - AirBeam_June_V12_11.idf
!                        (1) Added EMS code to be able to scale heat transfer coefficients
! Greg Barker -          (2) Fixed output of HTC, Conv. HT, and Rad HT for North & South outer shell, outer surface

! Greg Barker  - 09/21/14 - AirBeam_June_V12_12.idf
!                        (1) Adjusted scaling factors for convection coefficients for Outer Shell/Inner Face, Inner Shell/Outer Face, Inner Shell/Inner Face
!                        (2) Replaced definition of ExteriorCanvas_Tan with ExteriorCanvas_Green, replaced properties with tested values
!                        (3) Replaced properties of fabrics and floor insulation with tested values
!                        (4) Commented-out: !Material:AirGap,
!                                           !  000_F04 Wall air space resistance,      !- Name
!                                           !  0.15;                                   !- Thermal Resistance {m2-K/W}

!                                           !Material:AirGap,
!                                           !  000_F05 Ceiling air space resistance,   !- Name
!                                           !  0.18;                                   !- Thermal Resistance {m2-K/W}

!                                           !Construction,
!                                           !  Floor_Construction,                     !- Name
!                                           !  05m_Ground,                             !- Layer 1
!                                           !  ground_0.5_ins,                         !- Layer 2
!                                           !  conc_1_inc;                             !- Layer 3
!                                           
!                                           !Construction,
!                                           !  FloorMaterial,                          !- Name
!                                           !  FloorAirGap;                            !- Layer 1


! Eric Bonnema - 09/23/14 - AirBeam_June_V12_13.idf
!                        (1) Made some changes to EMS programs to get each progrm to represent a category (Inside Shell/Inside Face , Inside Shell/Outside Face , Outside Shell/Inside Face , Floor)

! Greg Barker  - 09/24/14 - AirBeam_June_V12_14.idf
!                        (1) Changed thermal resistance of CalculatedFloor to 0.5
!                        (2) Changed Airbeam_GrndTemps schedule
!                        (3) Added output of Surface Inside Face Convection Heat Gain Rate per Area for Floor

!
! *********************************************************************************************************************
!*****************
!This model has a ZONECAPACITANCEMULTIPLIER object.  This is used in an attempt to even out the indoor air temperature
!This model has convection coefficients set to particular equations in an attempt more accuratley capture the effects of the moving air in the space and the convection/radiation balance on the liner material.
!*****************

Version,
  8.1;                                    !- Version Identifier

!-   ===========  ALL OBJECTS IN CLASS: SIMULATIONCONTROL ===========

SimulationControl,
  No,                                     !- Do Zone Sizing Calculation
  No,                                     !- Do System Sizing Calculation
  No,                                     !- Do Plant Sizing Calculation
  No,                                     !- Run Simulation for Sizing Periods
  Yes;                                    !- Run Simulation for Weather File Run Periods

!-   ===========  ALL OBJECTS IN CLASS: BUILDING ===========

Building,
  Air Beam Shelter,                       !- Name
  -0,                                     !- North Axis {deg}
  ,                                       !- Terrain
  0.04,                                   !- Loads Convergence Tolerance Value
  0.4,                                    !- Temperature Convergence Tolerance Value {deltaC}
  FullExterior,                           !- Solar Distribution
  25,                                     !- Maximum Number of Warmup Days
  ;                                       !- Minimum Number of Warmup Days

!-   ===========  ALL OBJECTS IN CLASS: ZONECAPACITANCEMULTIPLIER:RESEARCHSPECIAL ===========

ZoneCapacitanceMultiplier:ResearchSpecial,
  1,                                      !- Temperature Capacity Multiplier
  1,                                      !- Humidity Capacity Multiplier
  1,                                      !- Carbon Dioxide Capacity Multiplier
  1;                                      !- Generic Contaminant Capacity Multiplier

!-   ===========  ALL OBJECTS IN CLASS: TIMESTEP ===========

Timestep,
  4;                                      !- Number of Timesteps per Hour

!-   ===========  ALL OBJECTS IN CLASS: PROGRAMCONTROL ===========

ProgramControl,
  1;                                      !- Number of Threads Allowed

!-   ===========  ALL OBJECTS IN CLASS: SITE:LOCATION ===========

Site:Location,
  Champaign (OL),                         !- Name
  40.02,                                  !- Latitude {deg}
  -88.28,                                 !- Longitude {deg}
  -6,                                     !- Time Zone {hr}
  225;                                    !- Elevation {m}

!-   ===========  ALL OBJECTS IN CLASS: RUNPERIOD ===========

RunPeriod,
  Run Period 1,                           !- Name
  6,                                      !- Begin Month
  24,                                     !- Begin Day of Month
  6,                                      !- End Month
  27,                                     !- End Day of Month
  Monday,                                 !- Day of Week for Start Day
  Yes,                                    !- Use Weather File Holidays and Special Days
  No,                                     !- Use Weather File Daylight Saving Period
  No,                                     !- Apply Weekend Holiday Rule
  Yes,                                    !- Use Weather File Rain Indicators
  Yes,                                    !- Use Weather File Snow Indicators
  1;                                      !- Number of Times Runperiod to be Repeated

!-   ===========  ALL OBJECTS IN CLASS: SCHEDULETYPELIMITS ===========

ScheduleTypeLimits,
  ActivityLevel,                          !- Name
  0,                                      !- Lower Limit Value {BasedOnField A3}
  ,                                       !- Upper Limit Value {BasedOnField A3}
  Continuous,                             !- Numeric Type
  activitylevel;                          !- Unit Type

ScheduleTypeLimits,
  Fraction,                               !- Name
  0,                                      !- Lower Limit Value {BasedOnField A3}
  1,                                      !- Upper Limit Value {BasedOnField A3}
  CONTINUOUS;                             !- Numeric Type

ScheduleTypeLimits,
  Temperature 2,                          !- Name
  ,                                       !- Lower Limit Value {BasedOnField A3}
  ,                                       !- Upper Limit Value {BasedOnField A3}
  Continuous,                             !- Numeric Type
  temperature;                            !- Unit Type

ScheduleTypeLimits,
  Control Type,                           !- Name
  0,                                      !- Lower Limit Value {BasedOnField A3}
  4,                                      !- Upper Limit Value {BasedOnField A3}
  DISCRETE;                               !- Numeric Type

ScheduleTypeLimits,
  Temperature,                            !- Name
  -60,                                    !- Lower Limit Value {BasedOnField A3}
  200,                                    !- Upper Limit Value {BasedOnField A3}
  CONTINUOUS;                             !- Numeric Type

ScheduleTypeLimits,
  On/Off,                                 !- Name
  0,                                      !- Lower Limit Value {BasedOnField A3}
  1,                                      !- Upper Limit Value {BasedOnField A3}
  DISCRETE;                               !- Numeric Type

ScheduleTypeLimits,
  Any Number;                             !- Name

!-   ===========  ALL OBJECTS IN CLASS: SCHEDULE:COMPACT ===========
!Infiltraton based on measured data

Schedule:Compact,
  AirBeam_InfilSchedule,                  !- Name
  Any Number,                             !- Schedule Type Limits Name
  Through: 06/23,                         !- Field 1
  For: AllDays,                           !- Field 2
  Until: 0:15,                            !- Field 3
  0.000,                                  !- Field 4
  Until: 0:30,                            !- Field 5
  0.000,                                  !- Field 6
  Until: 0:45,                            !- Field 7
  0.000,                                  !- Field 8
  Until: 1:00,                            !- Field 9
  0.000,                                  !- Field 10
  Until: 1:15,                            !- Field 11
  0.000,                                  !- Field 12
  Until: 1:30,                            !- Field 13
  0.000,                                  !- Field 14
  Until: 1:45,                            !- Field 15
  0.000,                                  !- Field 16
  Until: 2:00,                            !- Field 17
  0.000,                                  !- Field 18
  Until: 2:15,                            !- Field 19
  0.000,                                  !- Field 20
  Until: 2:30,                            !- Field 21
  0.000,                                  !- Field 22
  Until: 2:45,                            !- Field 23
  0.000,                                  !- Field 24
  Until: 3:00,                            !- Field 25
  0.000,                                  !- Field 26
  Until: 3:15,                            !- Field 27
  0.000,                                  !- Field 28
  Until: 3:30,                            !- Field 29
  0.000,                                  !- Field 30
  Until: 3:45,                            !- Field 31
  0.000,                                  !- Field 32
  Until: 4:00,                            !- Field 33
  0.000,                                  !- Field 34
  Until: 4:15,                            !- Field 35
  0.000,                                  !- Field 36
  Until: 4:30,                            !- Field 37
  0.000,                                  !- Field 38
  Until: 4:45,                            !- Field 39
  0.000,                                  !- Field 40
  Until: 5:00,                            !- Field 41
  0.000,                                  !- Field 42
  Until: 5:15,                            !- Field 43
  0.000,                                  !- Field 44
  Until: 5:30,                            !- Field 45
  0.000,                                  !- Field 46
  Until: 5:45,                            !- Field 47
  0.000,                                  !- Field 48
  Until: 6:00,                            !- Field 49
  0.000,                                  !- Field 50
  Until: 6:15,                            !- Field 51
  0.000,                                  !- Field 52
  Until: 6:30,                            !- Field 53
  0.000,                                  !- Field 54
  Until: 6:45,                            !- Field 55
  0.000,                                  !- Field 56
  Until: 7:00,                            !- Field 57
  0.000,                                  !- Field 58
  Until: 7:15,                            !- Field 59
  0.000,                                  !- Field 60
  Until: 7:30,                            !- Field 61
  0.000,                                  !- Field 62
  Until: 7:45,                            !- Field 63
  0.000,                                  !- Field 64
  Until: 8:00,                            !- Field 65
  0.000,                                  !- Field 66
  Until: 8:15,                            !- Field 67
  0.000,                                  !- Field 68
  Until: 8:30,                            !- Field 69
  0.000,                                  !- Field 70
  Until: 8:45,                            !- Field 71
  0.000,                                  !- Field 72
  Until: 9:00,                            !- Field 73
  0.000,                                  !- Field 74
  Until: 9:15,                            !- Field 75
  0.000,                                  !- Field 76
  Until: 9:30,                            !- Field 77
  0.000,                                  !- Field 78
  Until: 9:45,                            !- Field 79
  0.000,                                  !- Field 80
  Until: 10:00,                           !- Field 81
  0.000,                                  !- Field 82
  Until: 10:15,                           !- Field 83
  0.000,                                  !- Field 84
  Until: 10:30,                           !- Field 85
  0.000,                                  !- Field 86
  Until: 10:45,                           !- Field 87
  0.000,                                  !- Field 88
  Until: 11:00,                           !- Field 89
  0.000,                                  !- Field 90
  Until: 11:15,                           !- Field 91
  0.000,                                  !- Field 92
  Until: 11:30,                           !- Field 93
  0.000,                                  !- Field 94
  Until: 11:45,                           !- Field 95
  0.000,                                  !- Field 96
  Until: 12:00,                           !- Field 97
  0.000,                                  !- Field 98
  Until: 12:15,                           !- Field 99
  0.000,                                  !- Field 100
  Until: 12:30,                           !- Field 101
  0.000,                                  !- Field 102
  Until: 12:45,                           !- Field 103
  0.000,                                  !- Field 104
  Until: 13:00,                           !- Field 105
  0.000,                                  !- Field 106
  Until: 13:15,                           !- Field 107
  0.000,                                  !- Field 108
  Until: 13:30,                           !- Field 109
  0.000,                                  !- Field 110
  Until: 13:45,                           !- Field 111
  0.000,                                  !- Field 112
  Until: 14:00,                           !- Field 113
  0.000,                                  !- Field 114
  Until: 14:15,                           !- Field 115
  0.000,                                  !- Field 116
  Until: 14:30,                           !- Field 117
  0.000,                                  !- Field 118
  Until: 14:45,                           !- Field 119
  0.000,                                  !- Field 120
  Until: 15:00,                           !- Field 121
  0.000,                                  !- Field 122
  Until: 15:15,                           !- Field 123
  0.000,                                  !- Field 124
  Until: 15:30,                           !- Field 125
  0.000,                                  !- Field 126
  Until: 15:45,                           !- Field 127
  0.000,                                  !- Field 128
  Until: 16:00,                           !- Field 129
  0.000,                                  !- Field 130
  Until: 16:15,                           !- Field 131
  0.000,                                  !- Field 132
  Until: 16:30,                           !- Field 133
  0.000,                                  !- Field 134
  Until: 16:45,                           !- Field 135
  0.000,                                  !- Field 136
  Until: 17:00,                           !- Field 137
  0.000,                                  !- Field 138
  Until: 17:15,                           !- Field 139
  0.000,                                  !- Field 140
  Until: 17:30,                           !- Field 141
  0.000,                                  !- Field 142
  Until: 17:45,                           !- Field 143
  0.000,                                  !- Field 144
  Until: 18:00,                           !- Field 145
  0.000,                                  !- Field 146
  Until: 18:15,                           !- Field 147
  0.000,                                  !- Field 148
  Until: 18:30,                           !- Field 149
  0.000,                                  !- Field 150
  Until: 18:45,                           !- Field 151
  0.000,                                  !- Field 152
  Until: 19:00,                           !- Field 153
  0.000,                                  !- Field 154
  Until: 19:15,                           !- Field 155
  0.000,                                  !- Field 156
  Until: 19:30,                           !- Field 157
  0.000,                                  !- Field 158
  Until: 19:45,                           !- Field 159
  0.000,                                  !- Field 160
  Until: 20:00,                           !- Field 161
  0.000,                                  !- Field 162
  Until: 20:15,                           !- Field 163
  0.000,                                  !- Field 164
  Until: 20:30,                           !- Field 165
  0.000,                                  !- Field 166
  Until: 20:45,                           !- Field 167
  0.000,                                  !- Field 168
  Until: 21:00,                           !- Field 169
  0.000,                                  !- Field 170
  Until: 21:15,                           !- Field 171
  0.000,                                  !- Field 172
  Until: 21:30,                           !- Field 173
  0.000,                                  !- Field 174
  Until: 21:45,                           !- Field 175
  0.000,                                  !- Field 176
  Until: 22:00,                           !- Field 177
  0.000,                                  !- Field 178
  Until: 22:15,                           !- Field 179
  0.000,                                  !- Field 180
  Until: 22:30,                           !- Field 181
  0.000,                                  !- Field 182
  Until: 22:45,                           !- Field 183
  0.000,                                  !- Field 184
  Until: 23:00,                           !- Field 185
  0.000,                                  !- Field 186
  Until: 23:15,                           !- Field 187
  0.000,                                  !- Field 188
  Until: 23:30,                           !- Field 189
  0.000,                                  !- Field 190
  Until: 23:45,                           !- Field 191
  0.000,                                  !- Field 192
  Until: 24:00,                           !- Field 193
  0.000,                                  !- Field 194
  Through: 06/24,                         !- Field 195
  For: AllDays,                           !- Field 196
  Until: 0:15,                            !- Field 197
  0.000,                                  !- Field 198
  Until: 0:30,                            !- Field 199
  0.000,                                  !- Field 200
  Until: 0:45,                            !- Field 201
  0.000,                                  !- Field 202
  Until: 1:00,                            !- Field 203
  0.000,                                  !- Field 204
  Until: 1:15,                            !- Field 205
  0.000,                                  !- Field 206
  Until: 1:30,                            !- Field 207
  0.000,                                  !- Field 208
  Until: 1:45,                            !- Field 209
  0.000,                                  !- Field 210
  Until: 2:00,                            !- Field 211
  0.000,                                  !- Field 212
  Until: 2:15,                            !- Field 213
  0.000,                                  !- Field 214
  Until: 2:30,                            !- Field 215
  0.000,                                  !- Field 216
  Until: 2:45,                            !- Field 217
  0.000,                                  !- Field 218
  Until: 3:00,                            !- Field 219
  0.000,                                  !- Field 220
  Until: 3:15,                            !- Field 221
  0.000,                                  !- Field 222
  Until: 3:30,                            !- Field 223
  0.000,                                  !- Field 224
  Until: 3:45,                            !- Field 225
  0.000,                                  !- Field 226
  Until: 4:00,                            !- Field 227
  0.000,                                  !- Field 228
  Until: 4:15,                            !- Field 229
  0.000,                                  !- Field 230
  Until: 4:30,                            !- Field 231
  0.000,                                  !- Field 232
  Until: 4:45,                            !- Field 233
  0.000,                                  !- Field 234
  Until: 5:00,                            !- Field 235
  0.000,                                  !- Field 236
  Until: 5:15,                            !- Field 237
  0.000,                                  !- Field 238
  Until: 5:30,                            !- Field 239
  0.000,                                  !- Field 240
  Until: 5:45,                            !- Field 241
  0.000,                                  !- Field 242
  Until: 6:00,                            !- Field 243
  0.000,                                  !- Field 244
  Until: 6:15,                            !- Field 245
  0.000,                                  !- Field 246
  Until: 6:30,                            !- Field 247
  0.000,                                  !- Field 248
  Until: 6:45,                            !- Field 249
  0.000,                                  !- Field 250
  Until: 7:00,                            !- Field 251
  0.000,                                  !- Field 252
  Until: 7:15,                            !- Field 253
  0.161,                                  !- Field 254
  Until: 7:30,                            !- Field 255
  0.165,                                  !- Field 256
  Until: 7:45,                            !- Field 257
  0.184,                                  !- Field 258
  Until: 8:00,                            !- Field 259
  0.175,                                  !- Field 260
  Until: 8:15,                            !- Field 261
  0.195,                                  !- Field 262
  Until: 8:30,                            !- Field 263
  0.169,                                  !- Field 264
  Until: 8:45,                            !- Field 265
  0.191,                                  !- Field 266
  Until: 9:00,                            !- Field 267
  0.177,                                  !- Field 268
  Until: 9:15,                            !- Field 269
  0.176,                                  !- Field 270
  Until: 9:30,                            !- Field 271
  0.190,                                  !- Field 272
  Until: 9:45,                            !- Field 273
  0.219,                                  !- Field 274
  Until: 10:00,                           !- Field 275
  0.212,                                  !- Field 276
  Until: 10:15,                           !- Field 277
  0.232,                                  !- Field 278
  Until: 10:30,                           !- Field 279
  0.241,                                  !- Field 280
  Until: 10:45,                           !- Field 281
  0.240,                                  !- Field 282
  Until: 11:00,                           !- Field 283
  0.252,                                  !- Field 284
  Until: 11:15,                           !- Field 285
  0.260,                                  !- Field 286
  Until: 11:30,                           !- Field 287
  0.255,                                  !- Field 288
  Until: 11:45,                           !- Field 289
  0.299,                                  !- Field 290
  Until: 12:00,                           !- Field 291
  0.267,                                  !- Field 292
  Until: 12:15,                           !- Field 293
  0.308,                                  !- Field 294
  Until: 12:30,                           !- Field 295
  0.263,                                  !- Field 296
  Until: 12:45,                           !- Field 297
  0.303,                                  !- Field 298
  Until: 13:00,                           !- Field 299