
OS:Version,
  {8104bb12-60dc-4fd8-9e01-a67fb1d63967}, !- Handle
  2.9.0;                                  !- Version Identifier

OS:SimulationControl,
  {fb205df5-0f5d-4d3f-84b1-aee623a2ce36}, !- Handle
  Yes,                                    !- Do Zone Sizing Calculation
  Yes,                                    !- Do System Sizing Calculation
  ,                                       !- Do Plant Sizing Calculation
  No,                                     !- Run Simulation for Sizing Periods
  Yes;                                    !- Run Simulation for Weather File Run Periods

OS:Timestep,
  {db3de291-dd05-4730-85c9-29ccf60cae9a}, !- Handle
  6;                                      !- Number of Timesteps per Hour

OS:RunPeriod,
  {7bfef75a-f0f3-4f21-a1d5-c1a3be0ae26f}, !- Handle
  Run Period 1,                           !- Name
  1,                                      !- Begin Month
  1,                                      !- Begin Day of Month
  12,                                     !- End Month
  31,                                     !- End Day of Month
  No,                                     !- Use Weather File Holidays and Special Days
  No,                                     !- Use Weather File Daylight Saving Period
  No,                                     !- Apply Weekend Holiday Rule
  Yes,                                    !- Use Weather File Rain Indicators
  Yes,                                    !- Use Weather File Snow Indicators
  1;                                      !- Number of Times Runperiod to be Repeated

OS:SurfaceConvectionAlgorithm:Inside,
  {9361979a-7aba-49a0-b812-43ed33a7bcac}, !- Handle
  TARP;                                   !- Algorithm

OS:SurfaceConvectionAlgorithm:Outside,
  {9337a60d-1ecd-491a-a020-750b42c9fa34}, !- Handle
  DOE-2;                                  !- Algorithm

OS:HeatBalanceAlgorithm,
  {8608f054-817e-42ba-ab16-938c80ad8d50}, !- Handle
  ConductionTransferFunction,             !- Algorithm
  200;                                    !- Surface Temperature Upper Limit {C}

OS:ZoneAirHeatBalanceAlgorithm,
  {5a16e3e0-4588-4b03-b8f7-e1e203ec9f44}, !- Handle
  ThirdOrderBackwardDifference;           !- Algorithm

OS:ConvergenceLimits,
  {c1553dad-380a-49fa-b42b-28dad48b73d2}, !- Handle
  1;                                      !- Minimum System Timestep {minutes}

OS:ShadowCalculation,
  {a804fe44-d024-4cc5-83b1-0f31b49f378f}, !- Handle
  20,                                     !- Calculation Frequency
  15000;                                  !- Maximum Figures in Shadow Overlap Calculations

OS:Site,
  {16710b02-e708-4436-b649-019fdf5f10f9}, !- Handle
  Site 1,                                 !- Name
  41.77,                                  !- Latitude {deg}
  -87.75,                                 !- Longitude {deg}
  -6,                                     !- Time Zone {hr}
  190,                                    !- Elevation {m}
  ;                                       !- Terrain

OS:Site:GroundTemperature:BuildingSurface,
  {8ec727fa-5bb2-4687-9d2b-5969f91f81ec}, !- Handle
  19.527,                                 !- January Ground Temperature {C}
  19.502,                                 !- February Ground Temperature {C}
  19.536,                                 !- March Ground Temperature {C}
  19.598,                                 !- April Ground Temperature {C}
  20.002,                                 !- May Ground Temperature {C}
  21.64,                                  !- June Ground Temperature {C}
  22.225,                                 !- July Ground Temperature {C}
  22.375,                                 !- August Ground Temperature {C}
  21.449,                                 !- September Ground Temperature {C}
  20.121,                                 !- October Ground Temperature {C}
  19.802,                                 !- November Ground Temperature {C}
  19.633;                                 !- December Ground Temperature {C}

OS:Site:GroundTemperature:Deep,
  {0dcf9538-c084-4402-9918-4383244d10a0}, !- Handle
  19.527,                                 !- January Deep Ground Temperature {C}
  19.502,                                 !- February Deep Ground Temperature {C}
  19.536,                                 !- March Deep Ground Temperature {C}
  19.598,                                 !- April Deep Ground Temperature {C}
  20.002,                                 !- May Deep Ground Temperature {C}
  21.64,                                  !- June Deep Ground Temperature {C}
  22.225,                                 !- July Deep Ground Temperature {C}
  22.375,                                 !- August Deep Ground Temperature {C}
  21.449,                                 !- September Deep Ground Temperature {C}
  20.121,                                 !- October Deep Ground Temperature {C}
  19.802,                                 !- November Deep Ground Temperature {C}
  19.633;                                 !- December Deep Ground Temperature {C}

OS:Site:WaterMainsTemperature,
  {7ee9ffb8-650a-4825-8a5a-9c65942331d2}, !- Handle
  Correlation,                            !- Calculation Method
  ,                                       !- Temperature Schedule Name
  9.69,                                   !- Annual Average Outdoor Air Temperature {C}
  28.1;                                   !- Maximum Difference In Monthly Average Outdoor Air Temperatures {deltaC}

OS:SizingPeriod:DesignDay,
  {9d93388d-3304-491b-ae8d-8f400367ba84}, !- Handle
  Sizing Period Design Day 1,             !- Name
  -20.6,                                  !- Maximum Dry-Bulb Temperature {C}
  0,                                      !- Daily Dry-Bulb Temperature Range {deltaC}
  -20.6,                                  !- Humidity Indicating Conditions at Maximum Dry-Bulb
  99063,                                  !- Barometric Pressure {Pa}
  4.9,                                    !- Wind Speed {m/s}
  270,                                    !- Wind Direction {deg}
  0,                                      !- Sky Clearness
  0,                                      !- Rain Indicator
  0,                                      !- Snow Indicator
  21,                                     !- Day of Month
  1,                                      !- Month
  WinterDesignDay,                        !- Day Type
  0,                                      !- Daylight Saving Time Indicator
  WetBulb,                                !- Humidity Indicating Type
  ,                                       !- Humidity Indicating Day Schedule Name
  DefaultMultipliers,                     !- Dry-Bulb Temperature Range Modifier Type
  ,                                       !- Dry-Bulb Temperature Range Modifier Schedule Name
  ASHRAEClearSky;                         !- Solar Model Indicator

OS:SizingPeriod:DesignDay,
  {04a1aad6-c98b-4f11-a96b-b19f25b44e5c}, !- Handle
  Sizing Period Design Day 2,             !- Name
  33.2,                                   !- Maximum Dry-Bulb Temperature {C}
  10.7,                                   !- Daily Dry-Bulb Temperature Range {deltaC}
  23.8,                                   !- Humidity Indicating Conditions at Maximum Dry-Bulb
  99063,                                  !- Barometric Pressure {Pa}
  5.3,                                    !- Wind Speed {m/s}
  230,                                    !- Wind Direction {deg}
  1,                                      !- Sky Clearness
  0,                                      !- Rain Indicator
  0,                                      !- Snow Indicator
  21,                                     !- Day of Month
  7,                                      !- Month
  SummerDesignDay,                        !- Day Type
  0,                                      !- Daylight Saving Time Indicator
  WetBulb,                                !- Humidity Indicating Type
  ,                                       !- Humidity Indicating Day Schedule Name
  DefaultMultipliers,                     !- Dry-Bulb Temperature Range Modifier Type
  ,                                       !- Dry-Bulb Temperature Range Modifier Schedule Name
  ASHRAEClearSky;                         !- Solar Model Indicator

OS:ScheduleTypeLimits,
  {700ba943-18a0-4365-b09a-b5ac9db0bcc8}, !- Handle
  Temperature,                            !- Name
  -60,                                    !- Lower Limit Value
  200,                                    !- Upper Limit Value
  CONTINUOUS,                             !- Numeric Type
  Temperature;                            !- Unit Type

OS:DefaultScheduleSet,
  {ccc9e282-2a6f-4c92-a538-a284ecae5e5d}, !- Handle
  Default Schedules,                      !- Name
  ,                                       !- Hours of Operation Schedule Name
  {b1218817-b66b-41ee-9ecd-d84f044fa375}, !- Number of People Schedule Name
  {3a0ca0b1-6a63-4ee3-8b7d-53ba27bae266}, !- People Activity Level Schedule Name
  {df5edeb8-8dfc-4aa2-9c2f-2453f96626b6}, !- Lighting Schedule Name
  {df3873cb-058a-4dbf-bf3b-f0e0b4a133d1}, !- Electric Equipment Schedule Name
  {a970b922-1f24-4ba9-8ee0-dec9557b2230}, !- Gas Equipment Schedule Name
  {b4ec402d-ec0c-4dd3-90c5-00822bbd71be}, !- Hot Water Equipment Schedule Name
  {f4b5502b-ae08-4de9-9a49-de96b29bf751}, !- Infiltration Schedule Name
  ,                                       !- Steam Equipment Schedule Name
  ;                                       !- Other Equipment Schedule Name

OS:Schedule:Ruleset,
  {b1218817-b66b-41ee-9ecd-d84f044fa375}, !- Handle
  Medium Office Number of People Schedule, !- Name
  {8556b931-4497-488e-a318-634997a78464}, !- Schedule Type Limits Name
  {456bdf7e-3b5f-4125-bfd0-e25adf349cf0}, !- Default Day Schedule Name
  {7c10e6b1-5077-4df7-b1fa-933a9fe262ce}; !- Summer Design Day Schedule Name

OS:Schedule:Day,
  {456bdf7e-3b5f-4125-bfd0-e25adf349cf0}, !- Handle
  Medium Office Number of People All Other Days Schedule, !- Name
  {8556b931-4497-488e-a318-634997a78464}, !- Schedule Type Limits Name
  ,                                       !- Interpolate to Timestep
  24,                                     !- Hour 1
  0,                                      !- Minute 1
  0;                                      !- Value Until Time 1

OS:Schedule:Day,
  {2e093527-3182-49f7-b12a-a3deeb6612e3}, !- Handle
  Medium Office Number of People Summer Design Day Schedule, !- Name
  ,                                       !- Schedule Type Limits Name
  ,                                       !- Interpolate to Timestep
  6,                                      !- Hour 1
  0,                                      !- Minute 1
  0,                                      !- Value Until Time 1
  22,                                     !- Hour 2
  0,                                      !- Minute 2
  1,                                      !- Value Until Time 2
  24,                                     !- Hour 3
  0,                                      !- Minute 3
  0.05;                                   !- Value Until Time 3

OS:Schedule:Day,
  {7c10e6b1-5077-4df7-b1fa-933a9fe262ce}, !- Handle
  Medium Office Number of People Summer Design Day Schedule 1, !- Name
  {8556b931-4497-488e-a318-634997a78464}, !- Schedule Type Limits Name
  ,                                       !- Interpolate to Timestep
  6,                                      !- Hour 1
  0,                                      !- Minute 1
  0,                                      !- Value Until Time 1
  22,                                     !- Hour 2
  0,                                      !- Minute 2
  1,                                      !- Value Until Time 2
  24,                                     !- Hour 3
  0,                                      !- Minute 3
  0.05;                                   !- Value Until Time 3

OS:Schedule:Rule,
  {c8cd7bb2-f743-4ef2-88c3-702f7b75e2f9}, !- Handle
  Medium Office Number of People Schedule Weekdays Rule, !- Name
  {b1218817-b66b-41ee-9ecd-d84f044fa375}, !- Schedule Ruleset Name
  1,                                      !- Rule Order
  {24dd48af-589c-4148-82ff-57bd3d5b469a}, !- Day Schedule Name
  ,                                       !- Apply Sunday
  Yes,                                    !- Apply Monday
  Yes,                                    !- Apply Tuesday
  Yes,                                    !- Apply Wednesday
  Yes,                                    !- Apply Thursday
  Yes;                                    !- Apply Friday

OS:Schedule:Day,
  {24dd48af-589c-4148-82ff-57bd3d5b469a}, !- Handle
  Medium Office Number of People Weekdays Schedule, !- Name
  {8556b931-4497-488e-a318-634997a78464}, !- Schedule Type Limits Name
  ,                                       !- Interpolate to Timestep
  6,                                      !- Hour 1
  0,                                      !- Minute 1
  0,                                      !- Value Until Time 1
  7,                                      !- Hour 2
  0,                                      !- Minute 2
  0.1,                                    !- Value Until Time 2
  8,                                      !- Hour 3
  0,                                      !- Minute 3
  0.2,                                    !- Value Until Time 3
  12,                                     !- Hour 4
  0,                                      !- Minute 4
  0.95,                                   !- Value Until Time 4
  13,                                     !- Hour 5
  0,                                      !- Minute 5
  0.5,                                    !- Value Until Time 5
  17,                                     !- Hour 6
  0,                                      !- Minute 6
  0.95,                                   !- Value Until Time 6
  18,                                     !- Hour 7
  0,                                      !- Minute 7
  0.7,                                    !- Value Until Time 7
  20,                                     !- Hour 8
  0,                                      !- Minute 8
  0.4,                                    !- Value Until Time 8
  22,                                     !- Hour 9
  0,                                      !- Minute 9
  0.1,                                    !- Value Until Time 9
  24,                                     !- Hour 10
  0,                                      !- Minute 10
  0.05;                                   !- Value Until Time 10

OS:Schedule:Rule,
  {182c632e-d6e2-4122-bda6-64991341e95e}, !- Handle
  Medium Office Number of People Schedule Saturday Rule, !- Name
  {b1218817-b66b-41ee-9ecd-d84f044fa375}, !- Schedule Ruleset Name
  0,                                      !- Rule Order
  {03b25659-94b9-461a-b595-16c43fe4b77e}, !- Day Schedule Name
  ,                                       !- Apply Sunday
  ,                                       !- Apply Monday
  ,                                       !- Apply Tuesday
  ,                                       !- Apply Wednesday
  ,                                       !- Apply Thursday
  ,                                       !- Apply Friday
  Yes;                                    !- Apply Saturday

OS:Schedule:Day,
  {03b25659-94b9-461a-b595-16c43fe4b77e}, !- Handle
  Medium Office Number of People Saturday Schedule, !- Name
  {8556b931-4497-488e-a318-634997a78464}, !- Schedule Type Limits Name
  ,                                       !- Interpolate to Timestep
  6,                                      !- Hour 1
  0,                                      !- Minute 1
  0,                                      !- Value Until Time 1
  8,                                      !- Hour 2
  0,                                      !- Minute 2
  0.1,                                    !- Value Until Time 2
  14,                                     !- Hour 3
  0,                                      !- Minute 3
  0.5,                                    !- Value Until Time 3
  17,                                     !- Hour 4
  0,                                      !- Minute 4
  0.1,                                    !- Value Until Time 4
  24,                                     !- Hour 5
  0,                                      !- Minute 5
  0;                                      !- Value Until Time 5

OS:ScheduleTypeLimits,
  {8556b931-4497-488e-a318-634997a78464}, !- Handle
  Fractional,                             !- Name
  0,                                      !- Lower Limit Value
  1,                                      !- Upper Limit Value
  Continuous;                             !- Numeric Type

OS:Schedule:Ruleset,
  {3a0ca0b1-6a63-4ee3-8b7d-53ba27bae266}, !- Handle
  Medium Office People Activity Level Schedule, !- Name
  {230f9e31-9288-4c06-81d2-48ffc19e664a}, !- Schedule Type Limits Name
  {c11e65d9-aecb-4a3a-aa4c-0d1b5ee19004}; !- Default Day Schedule Name

OS:Schedule:Day,
  {c11e65d9-aecb-4a3a-aa4c-0d1b5ee19004}, !- Handle
  Medium Office People Activity Level All Days Schedule, !- Name
  {230f9e31-9288-4c06-81d2-48ffc19e664a}, !- Schedule Type Limits Name
  ,                                       !- Interpolate to Timestep
  24,                                     !- Hour 1
  0,                                      !- Minute 1
  120;                                    !- Value Until Time 1

OS:ScheduleTypeLimits,
  {230f9e31-9288-4c06-81d2-48ffc19e664a}, !- Handle
  ActivityLevel,                          !- Name
  0,                                      !- Lower Limit Value
  ,                                       !- Upper Limit Value
  Continuous,                             !- Numeric Type
  ActivityLevel;                          !- Unit Type

OS:Schedule:Ruleset,
  {df5edeb8-8dfc-4aa2-9c2f-2453f96626b6}, !- Handle
  Medium Office Lighting Schedule,        !- Name
  {8556b931-4497-488e-a318-634997a78464}, !- Schedule Type Limits Name
  {d374aa1a-a973-4089-bfd2-ba16e06962b2}, !- Default Day Schedule Name
  {16a32262-ac83-44f2-8d4d-1631fa988b50}, !- Summer Design Day Schedule Name
  {7340d13a-98bb-4b7b-a433-85955a231e27}; !- Winter Design Day Schedule Name

OS:Schedule:Day,
  {d374aa1a-a973-4089-bfd2-ba16e06962b2}, !- Handle
  Medium Office Lighting All Other Days Schedule, !- Name
  {8556b931-4497-488e-a318-634997a78464}, !- Schedule Type Limits Name
  ,                                       !- Interpolate to Timestep
  24,                                     !- Hour 1
  0,                                      !- Minute 1
  0.05;                                   !- Value Until Time 1

OS:Schedule:Day,
  {1d5ff913-5371-4b6a-a68d-795d3b67345a}, !- Handle
  Medium Office Lighting Summer Design Day Schedule, !- Name
  ,                                       !- Schedule Type Limits Name
  ,                                       !- Interpolate to Timestep
  6,                                      !- Hour 1
  0,                                      !- Minute 1
  1,                                      !- Value Until Time 1
  24,                                     !- Hour 2
  0,                                      !- Minute 2
  0;                                      !- Value Until Time 2

OS:Schedule:Day,
  {16a32262-ac83-44f2-8d4d-1631fa988b50}, !- Handle
  Medium Office Lighting Summer Design Day Schedule 1, !- Name
  {8556b931-4497-488e-a318-634997a78464}, !- Schedule Type Limits Name
  ,                                       !- Interpolate to Timestep
  6,                                      !- Hour 1
  0,                                      !- Minute 1
  1,                                      !- Value Until Time 1
  24,                                     !- Hour 2
  0,                                      !- Minute 2
  0;                                      !- Value Until Time 2

OS:Schedule:Day,
  {794cac06-b94b-427c-9f7f-27a1674a5024}, !- Handle
  Medium Office Lighting Winter Design Day Schedule, !- Name
  ,                                       !- Schedule Type Limits Name
  ,                                       !- Interpolate to Timestep
  24,                                     !- Hour 1
  0,                                      !- Minute 1
  0;                                      !- Value Until Time 1

OS:Schedule:Day,
  {7340d13a-98bb-4b7b-a433-85955a231e27}, !- Handle
  Medium Office Lighting Winter Design Day Schedule 1, !- Name
  {8556b931-4497-488e-a318-634997a78464}, !- Schedule Type Limits Name
  ,                                       !- Interpolate to Timestep
  24,                                     !- Hour 1
  0,                                      !- Minute 1
  0;                                      !- Value Until Time 1

OS:Schedule:Rule,
  {718516e2-317e-4c52-bd45-0891821742f3}, !- Handle
  Medium Office Lighting Schedule Weekdays Rule, !- Name
  {df5edeb8-8dfc-4aa2-9c2f-2453f96626b6}, !- Schedule Ruleset Name
  1,                                      !- Rule Order
  {69d7ad6c-bb35-4a0f-9c7f-8dfa225a834d}, !- Day Schedule Name
  ,                                       !- Apply Sunday
  Yes,                                    !- Apply Monday
  Yes,                                    !- Apply Tuesday
  Yes,                                    !- Apply Wednesday
  Yes,                                    !- Apply Thursday
  Yes;                                    !- Apply Friday

OS:Schedule:Day,
  {69d7ad6c-bb35-4a0f-9c7f-8dfa225a834d}, !- Handle
  Medium Office Lighting Weekdays Schedule, !- Name
  {8556b931-4497-488e-a318-634997a78464}, !- Schedule Type Limits Name
  ,                                       !- Interpolate to Timestep
  5,                                      !- Hour 1
  0,                                      !- Minute 1
  0.05,                                   !- Value Until Time 1
  7,                                      !- Hour 2
  0,                                      !- Minute 2
  0.1,                                    !- Value Until Time 2
  8,                                      !- Hour 3
  0,                                      !- Minute 3
  0.3,                                    !- Value Until Time 3
  17,                                     !- Hour 4
  0,                                      !- Minute 4
  0.9,                                    !- Value Until Time 4
  18,                                     !- Hour 5
  0,                                      !- Minute 5
  0.7,                                    !- Value Until Time 5
  20,                                     !- Hour 6
  0,                                      !- Minute 6
  0.5,                                    !- Value Until Time 6
  22,                                     !- Hour 7
  0,                                      !- Minute 7
  0.3,                                    !- Value Until Time 7
  23,                                     !- Hour 8
  0,                                      !- Minute 8
  0.1,                                    !- Value Until Time 8
  24,                                     !- Hour 9
  0,                                      !- Minute 9
  0.05;                                   !- Value Until Time 9

OS:Schedule:Rule,
  {b3a30322-e55f-4c48-9cec-83c9ea6b72fb}, !- Handle
  Medium Office Lighting Schedule Saturday Rule, !- Name
  {df5edeb8-8dfc-4aa2-9c2f-2453f96626b6}, !- Schedule Ruleset Name
  0,                                      !- Rule Order
  {222019e2-2f4f-4531-846c-9c9c6cc00aa9}, !- Day Schedule Name
  ,                                       !- Apply Sunday
  ,                                       !- Apply Monday
  ,                                       !- Apply Tuesday
  ,                                       !- Apply Wednesday
  ,                                       !- Apply Thursday
  ,                                       !- Apply Friday
  Yes;                                    !- Apply Saturday

OS:Schedule:Day,
  {222019e2-2f4f-4531-846c-9c9c6cc00aa9}, !- Handle
  Medium Office Lighting Saturday Schedule, !- Name
  {8556b931-4497-488e-a318-634997a78464}, !- Schedule Type Limits Name
  ,                                       !- Interpolate to Timestep
  6,                                      !- Hour 1
  0,                                      !- Minute 1
  0.05,                                   !- Value Until Time 1
  8,                                      !- Hour 2
  0,                                      !- Minute 2
  0.1,                                    !- Value Until Time 2
  14,                                     !- Hour 3
  0,                                      !- Minute 3
  0.5,                                    !- Value Until Time 3
  17,                                     !- Hour 4
  0,                                      !- Minute 4
  0.15,                                   !- Value Until Time 4
  24,                                     !- Hour 5
  0,                                      !- Minute 5
  0.05;                                   !- Value Until Time 5

OS:Schedule:Ruleset,
  {df3873cb-058a-4dbf-bf3b-f0e0b4a133d1}, !- Handle
  Medium Office Electric Equipment Schedule, !- Name
  {8556b931-4497-488e-a318-634997a78464}, !- Schedule Type Limits Name
  {ed704b21-3ffc-4d41-9b72-f6c1e0e1754d}, !- Default Day Schedule Name
  {fcd261f0-a891-4bee-846b-fed1388d12f0}, !- Summer Design Day Schedule Name
  {f246fe3f-3074-48db-a6fd-78a3b928b9d3}; !- Winter Design Day Schedule Name

OS:Schedule:Day,
  {ed704b21-3ffc-4d41-9b72-f6c1e0e1754d}, !- Handle
  Medium Office Electric Equipment All Other Days Schedule, !- Name
  {8556b931-4497-488e-a318-634997a78464}, !- Schedule Type Limits Name
  ,                                       !- Interpolate to Timestep
  24,                                     !- Hour 1
  0,                                      !- Minute 1
  0.3;                                    !- Value Until Time 1

OS:Schedule:Day,
  {17b8b2b7-97ee-4413-862c-417371568881}, !- Handle
  Medium Office Electric Equipment Summer Design Day Schedule, !- Name
  ,                                       !- Schedule Type Limits Name
  ,                                       !- Interpolate to Timestep
  6,                                      !- Hour 1
  0,                                      !- Minute 1
  1,                                      !- Value Until Time 1
  24,                                     !- Hour 2
  0,                                      !- Minute 2
  0;                                      !- Value Until Time 2

OS:Schedule:Day,
  {fcd261f0-a891-4bee-846b-fed1388d12f0}, !- Handle
  Medium Office Electric Equipment Summer Design Day Schedule 1, !- Name
  {8556b931-4497-488e-a318-634997a78464}, !- Schedule Type Limits Name
  ,                                       !- Interpolate to Timestep
  6,                                      !- Hour 1
  0,                                      !- Minute 1
  1,                                      !- Value Until Time 1
  24,                                     !- Hour 2
  0,                                      !- Minute 2
  0;                                      !- Value Until Time 2

OS:Schedule:Day,
  {416c495f-baee-496c-9ef7-b85e81d2a42e}, !- Handle
  Medium Office Electric Equipment Winter Design Day Schedule, !- Name
  ,                                       !- Schedule Type Limits Name
  ,                                       !- Interpolate to Timestep
  24,                                     !- Hour 1
  0,                                      !- Minute 1
  0;                                      !- Value Until Time 1

OS:Schedule:Day,
  {f246fe3f-3074-48db-a6fd-78a3b928b9d3}, !- Handle
  Medium Office Electric Equipment Winter Design Day Schedule 1, !- Name
  {8556b931-4497-488e-a318-634997a78464}, !- Schedule Type Limits Name
  ,                                       !- Interpolate to Timestep
  24,                                     !- Hour 1
  0,                                      !- Minute 1
  0;                                      !- Value Until Time 1

OS:Schedule:Rule,
  {bd8f3473-c17e-4db8-a142-b5ce824a7a5d}, !- Handle
  Medium Office Electric Equipment Schedule Weekdays Rule, !- Name
  {df3873cb-058a-4dbf-bf3b-f0e0b4a133d1}, !- Schedule Ruleset Name
  1,                                      !- Rule Order
  {478ebac1-8a5e-4c21-8f10-d2d438ae63bf}, !- Day Schedule Name
  ,                                       !- Apply Sunday
  Yes,                                    !- Apply Monday
  Yes,                                    !- Apply Tuesday
  Yes,                                    !- Apply Wednesday
  Yes,                                    !- Apply Thursday
  Yes;                                    !- Apply Friday

OS:Schedule:Day,
  {478ebac1-8a5e-4c21-8f10-d2d438ae63bf}, !- Handle
  Medium Office Electric Equipment Weekdays Schedule, !- Name
  {8556b931-4497-488e-a318-634997a78464}, !- Schedule Type Limits Name
  ,                                       !- Interpolate to Timestep
  8,                                      !- Hour 1
  0,                                      !- Minute 1
  0.4,                                    !- Value Until Time 1
  12,                                     !- Hour 2
  0,                                      !- Minute 2
  0.9,                                    !- Value Until Time 2
  13,                                     !- Hour 3
  0,                                      !- Minute 3
  0.8,                                    !- Value Until Time 3
  17,                                     !- Hour 4
  0,                                      !- Minute 4
  0.9,                                    !- Value Until Time 4
  18,                                     !- Hour 5
  0,                                      !- Minute 5
  0.8,                                    !- Value Until Time 5
  20,                                     !- Hour 6